#  __      __   ______   __       __  _______    ______     
# |  \    /  \ /      \ |  \     /  \|       \  /      \    
#  \$$\  /  $$|  $$$$$$\| $$\   /  $$| $$$$$$$\|  $$$$$$\   
#   \$$\/  $$ | $$__| $$| $$$\ /  $$$| $$__/ $$| $$  | $$   
#    \$$  $$  | $$    $$| $$$$\  $$$$| $$    $$| $$  | $$   
#     \$$$$   | $$$$$$$$| $$\$$ $$ $$| $$$$$$$\| $$  | $$   
#     | $$    | $$  | $$| $$ \$$$| $$| $$__/ $$| $$__/ $$   
#     | $$    | $$  | $$| $$  \$ | $$| $$    $$ \$$    $$   
#      \$$     \$$   \$$ \$$      \$$ \$$$$$$$   \$$$$$$    
#                                                           
# GPL Version 4.4.0 Revision 148. (Based on r.16920 h.961a8d
#                  MPI+SLK+OpenMP Build                     
#                http://www.yambo-code.org                  
#
#
 CRYSTAL
 PRIMVEC
  2.275462  0.000000  0.000000
   0.00000  13.22943   0.00000
   0.00000   0.00000  13.22943
 PRIMCOORD
  2  1
         1   0.60855   6.61471   6.61471
         1   1.66691   6.61471   6.61471
 BEGIN_BLOCK_DATAGRID_2D
 Generated with YPP  4   4   0
 BEGIN_DATAGRID_2D
    8   45
  0.000000  0.000000  6.614715
  2.275462  0.000000  0.000000
   0.00000  13.22943   0.00000
 0.1147E-6
 0.1212E-6
 0.1187E-6
 0.1252E-6
 0.1252E-6
 0.1187E-6
 0.1212E-6
 0.1147E-6
 0.4856E-7
 0.5382E-7
 0.5215E-7
 0.5286E-7
 0.5286E-7
 0.5215E-7
 0.5382E-7
 0.4856E-7
 0.5098E-7
 0.5495E-7
 0.6804E-7
 0.5662E-7
 0.5662E-7
 0.6804E-7
 0.5495E-7
 0.5098E-7
 0.6578E-7
 0.6389E-7
 0.7381E-7
 0.6461E-7
 0.6461E-7
 0.7381E-7
 0.6389E-7
 0.6578E-7
 0.6798E-7
 0.7548E-7
 0.7733E-7
 0.7971E-7
 0.7971E-7
 0.7733E-7
 0.7548E-7
 0.6798E-7
 0.7418E-7
 0.8102E-7
 0.8183E-7
 0.8406E-7
 0.8406E-7
 0.8183E-7
 0.8102E-7
 0.7418E-7
 0.1453E-6
 0.1253E-6
 0.1355E-6
 0.1610E-6
 0.1610E-6
 0.1355E-6
 0.1253E-6
 0.1453E-6
 0.2761E-6
 0.2958E-6
 0.3139E-6
 0.2871E-6
 0.2871E-6
 0.3139E-6
 0.2958E-6
 0.2761E-6
 0.6787E-6
 0.6783E-6
 0.7067E-6
 0.7734E-6
 0.7734E-6
 0.7067E-6
 0.6783E-6
 0.6787E-6
 0.2111E-5
 0.2115E-5
 0.2213E-5
 0.2319E-5
 0.2319E-5
 0.2213E-5
 0.2115E-5
 0.2111E-5
 0.5537E-5
 0.5797E-5
 0.6116E-5
 0.6385E-5
 0.6385E-5
 0.6116E-5
 0.5797E-5
 0.5537E-5
 0.1786E-4
 0.1855E-4
 0.1981E-4
 0.2068E-4
 0.2068E-4
 0.1981E-4
 0.1855E-4
 0.1786E-4
 0.5194E-4
 0.5261E-4
 0.5607E-4
 0.5972E-4
 0.5972E-4
 0.5607E-4
 0.5261E-4
 0.5194E-4
 0.1579E-3
 0.1657E-3
 0.1792E-3
 0.1883E-3
 0.1883E-3
 0.1792E-3
 0.1657E-3
 0.1579E-3
 0.4642E-3
 0.4815E-3
 0.5214E-3
 0.5532E-3
 0.5532E-3
 0.5214E-3
 0.4815E-3
 0.4642E-3
    0.0014
    0.0015
    0.0016
    0.0017
    0.0017
    0.0016
    0.0015
    0.0014
    0.0040
    0.0042
    0.0047
    0.0050
    0.0050
    0.0047
    0.0042
    0.0040
   0.01165
   0.01224
   0.01363
   0.01485
   0.01485
   0.01363
   0.01224
   0.01165
   0.03160
   0.03402
   0.03871
   0.04165
   0.04165
   0.03871
   0.03402
   0.03160
   0.08304
   0.09137
  0.106253
  0.114482
  0.114482
  0.106253
   0.09137
   0.08304
  0.193698
  0.225897
  0.277759
  0.284314
  0.284314
  0.277759
  0.225897
  0.193698
  0.367771
  0.498271
  0.677279
  0.608037
  0.608037
  0.677279
  0.498271
  0.367771
  0.478504
  0.702860
  1.000000
  0.844192
  0.844192
  1.000000
  0.702860
  0.478504
  0.367771
  0.498271
  0.677279
  0.608037
  0.608037
  0.677279
  0.498271
  0.367771
  0.193698
  0.225897
  0.277759
  0.284314
  0.284314
  0.277759
  0.225897
  0.193698
   0.08304
   0.09137
  0.106253
  0.114482
  0.114482
  0.106253
   0.09137
   0.08304
   0.03160
   0.03402
   0.03871
   0.04165
   0.04165
   0.03871
   0.03402
   0.03160
   0.01165
   0.01224
   0.01363
   0.01485
   0.01485
   0.01363
   0.01224
   0.01165
    0.0040
    0.0042
    0.0047
    0.0050
    0.0050
    0.0047
    0.0042
    0.0040
    0.0014
    0.0015
    0.0016
    0.0017
    0.0017
    0.0016
    0.0015
    0.0014
 0.4642E-3
 0.4815E-3
 0.5214E-3
 0.5532E-3
 0.5532E-3
 0.5214E-3
 0.4815E-3
 0.4642E-3
 0.1579E-3
 0.1657E-3
 0.1792E-3
 0.1883E-3
 0.1883E-3
 0.1792E-3
 0.1657E-3
 0.1579E-3
 0.5194E-4
 0.5261E-4
 0.5607E-4
 0.5972E-4
 0.5972E-4
 0.5607E-4
 0.5261E-4
 0.5194E-4
 0.1786E-4
 0.1855E-4
 0.1981E-4
 0.2068E-4
 0.2068E-4
 0.1981E-4
 0.1855E-4
 0.1786E-4
 0.5537E-5
 0.5797E-5
 0.6116E-5
 0.6385E-5
 0.6385E-5
 0.6116E-5
 0.5797E-5
 0.5537E-5
 0.2111E-5
 0.2115E-5
 0.2213E-5
 0.2319E-5
 0.2319E-5
 0.2213E-5
 0.2115E-5
 0.2111E-5
 0.6787E-6
 0.6783E-6
 0.7067E-6
 0.7734E-6
 0.7734E-6
 0.7067E-6
 0.6783E-6
 0.6787E-6
 0.2761E-6
 0.2958E-6
 0.3139E-6
 0.2871E-6
 0.2871E-6
 0.3139E-6
 0.2958E-6
 0.2761E-6
 0.1453E-6
 0.1253E-6
 0.1355E-6
 0.1610E-6
 0.1610E-6
 0.1355E-6
 0.1253E-6
 0.1453E-6
 0.7418E-7
 0.8102E-7
 0.8183E-7
 0.8406E-7
 0.8406E-7
 0.8183E-7
 0.8102E-7
 0.7418E-7
 0.6798E-7
 0.7548E-7
 0.7733E-7
 0.7971E-7
 0.7971E-7
 0.7733E-7
 0.7548E-7
 0.6798E-7
 0.6578E-7
 0.6389E-7
 0.7381E-7
 0.6461E-7
 0.6461E-7
 0.7381E-7
 0.6389E-7
 0.6578E-7
 0.5098E-7
 0.5495E-7
 0.6804E-7
 0.5662E-7
 0.5662E-7
 0.6804E-7
 0.5495E-7
 0.5098E-7
 0.4856E-7
 0.5382E-7
 0.5215E-7
 0.5286E-7
 0.5286E-7
 0.5215E-7
 0.5382E-7
 0.4856E-7
 0.1147E-6
 0.1212E-6
 0.1187E-6
 0.1252E-6
 0.1252E-6
 0.1187E-6
 0.1212E-6
 0.1147E-6
 END_DATAGRID_2D
 END_BLOCK_DATAGRID_2D
# 
# 11/06/2019 at 14:16 YPP @ dufour [start]
# 11/06/2019 at 14:16              [end]
#
# .-Input file : Outputs/02_density_02_density.in
# | electrons                      # [R] Electrons (and holes)
# | density                        # [R] Density
# | BoseTemp= 0.000000     eV      # Bosonic Temperature
# | Format= "x"                    # Output format [(c)ube/(g)nuplot/(x)crysden]
# | Direction= "12"                # [rlu] [1/2/3] for 1d or [12/13/23] for 2d [123] for 3D
# | FFTGvecs=  7659        RL      # [FFT] Plane-waves
