#  __      __   ______   __       __  _______    ______     
# |  \    /  \ /      \ |  \     /  \|       \  /      \    
#  \$$\  /  $$|  $$$$$$\| $$\   /  $$| $$$$$$$\|  $$$$$$\   
#   \$$\/  $$ | $$__| $$| $$$\ /  $$$| $$__/ $$| $$  | $$   
#    \$$  $$  | $$    $$| $$$$\  $$$$| $$    $$| $$  | $$   
#     \$$$$   | $$$$$$$$| $$\$$ $$ $$| $$$$$$$\| $$  | $$   
#     | $$    | $$  | $$| $$ \$$$| $$| $$__/ $$| $$__/ $$   
#     | $$    | $$  | $$| $$  \$ | $$| $$    $$ \$$    $$   
#      \$$     \$$   \$$ \$$      \$$ \$$$$$$$   \$$$$$$    
#                                                           
# GPL Version 4.4.0 Revision 148. (Based on r.16920 h.961a8d
#                  MPI+SLK+OpenMP Build                     
#                http://www.yambo-code.org                  
#
#
 CRYSTAL
 PRIMVEC
  2.381297  0.000000  0.000000
   0.00000  13.22943   0.00000
   0.00000   0.00000  13.22943
 PRIMCOORD
  2  1
         1   0.66147   6.61471   6.61471
         1   1.71983   6.61471   6.61471
 BEGIN_BLOCK_DATAGRID_2D
 Generated with YPP  4   4   0
 BEGIN_DATAGRID_2D
    8   45
  0.000000  0.000000  6.614715
  2.381297  0.000000  0.000000
   0.00000  13.22943   0.00000
 0.1046E-6
 0.1147E-6
 0.1325E-6
 0.1102E-6
 0.1102E-6
 0.1325E-6
 0.1147E-6
 0.1046E-6
 0.4018E-7
 0.5333E-7
 0.5469E-7
 0.4877E-7
 0.4877E-7
 0.5469E-7
 0.5333E-7
 0.4018E-7
 0.4519E-7
 0.5955E-7
 0.6332E-7
 0.5706E-7
 0.5706E-7
 0.6332E-7
 0.5955E-7
 0.4519E-7
 0.5898E-7
 0.6189E-7
 0.6389E-7
 0.6668E-7
 0.6668E-7
 0.6389E-7
 0.6189E-7
 0.5898E-7
 0.6905E-7
 0.7198E-7
 0.7472E-7
 0.8441E-7
 0.8441E-7
 0.7472E-7
 0.7198E-7
 0.6905E-7
 0.8365E-7
 0.8638E-7
 0.9149E-7
 0.8494E-7
 0.8494E-7
 0.9149E-7
 0.8638E-7
 0.8365E-7
 0.1584E-6
 0.1336E-6
 0.1579E-6
 0.1711E-6
 0.1711E-6
 0.1579E-6
 0.1336E-6
 0.1584E-6
 0.3276E-6
 0.3471E-6
 0.3313E-6
 0.3362E-6
 0.3362E-6
 0.3313E-6
 0.3471E-6
 0.3276E-6
 0.7340E-6
 0.7975E-6
 0.8145E-6
 0.9168E-6
 0.9168E-6
 0.8145E-6
 0.7975E-6
 0.7340E-6
 0.2363E-5
 0.2379E-5
 0.2637E-5
 0.2640E-5
 0.2640E-5
 0.2637E-5
 0.2379E-5
 0.2363E-5
 0.6352E-5
 0.6517E-5
 0.6833E-5
 0.7526E-5
 0.7526E-5
 0.6833E-5
 0.6517E-5
 0.6352E-5
 0.1920E-4
 0.2052E-4
 0.2245E-4
 0.2345E-4
 0.2345E-4
 0.2245E-4
 0.2052E-4
 0.1920E-4
 0.5636E-4
 0.5713E-4
 0.6287E-4
 0.6729E-4
 0.6729E-4
 0.6287E-4
 0.5713E-4
 0.5636E-4
 0.1670E-3
 0.1765E-3
 0.1947E-3
 0.2108E-3
 0.2108E-3
 0.1947E-3
 0.1765E-3
 0.1670E-3
 0.4762E-3
 0.5080E-3
 0.5655E-3
 0.6082E-3
 0.6082E-3
 0.5655E-3
 0.5080E-3
 0.4762E-3
    0.0014
    0.0015
    0.0017
    0.0019
    0.0019
    0.0017
    0.0015
    0.0014
    0.0039
    0.0043
    0.0049
    0.0054
    0.0054
    0.0049
    0.0043
    0.0039
   0.01118
   0.01206
   0.01414
   0.01584
   0.01584
   0.01414
   0.01206
   0.01118
   0.02955
   0.03282
   0.03959
   0.04414
   0.04414
   0.03959
   0.03282
   0.02955
   0.07464
   0.08619
  0.107509
  0.120413
  0.120413
  0.107509
   0.08619
   0.07464
  0.168032
  0.207030
  0.278919
  0.297803
  0.297803
  0.278919
  0.207030
  0.168032
  0.304444
  0.441637
  0.677774
  0.636626
  0.636626
  0.677774
  0.441637
  0.304444
  0.385687
  0.614024
  1.000000
  0.884184
  0.884184
  1.000000
  0.614024
  0.385687
  0.304444
  0.441637
  0.677774
  0.636626
  0.636626
  0.677774
  0.441637
  0.304444
  0.168032
  0.207030
  0.278919
  0.297803
  0.297803
  0.278919
  0.207030
  0.168032
   0.07464
   0.08619
  0.107509
  0.120413
  0.120413
  0.107509
   0.08619
   0.07464
   0.02955
   0.03282
   0.03959
   0.04414
   0.04414
   0.03959
   0.03282
   0.02955
   0.01118
   0.01206
   0.01414
   0.01584
   0.01584
   0.01414
   0.01206
   0.01118
    0.0039
    0.0043
    0.0049
    0.0054
    0.0054
    0.0049
    0.0043
    0.0039
    0.0014
    0.0015
    0.0017
    0.0019
    0.0019
    0.0017
    0.0015
    0.0014
 0.4762E-3
 0.5080E-3
 0.5655E-3
 0.6082E-3
 0.6082E-3
 0.5655E-3
 0.5080E-3
 0.4762E-3
 0.1670E-3
 0.1765E-3
 0.1947E-3
 0.2108E-3
 0.2108E-3
 0.1947E-3
 0.1765E-3
 0.1670E-3
 0.5636E-4
 0.5713E-4
 0.6287E-4
 0.6729E-4
 0.6729E-4
 0.6287E-4
 0.5713E-4
 0.5636E-4
 0.1920E-4
 0.2052E-4
 0.2245E-4
 0.2345E-4
 0.2345E-4
 0.2245E-4
 0.2052E-4
 0.1920E-4
 0.6352E-5
 0.6517E-5
 0.6833E-5
 0.7526E-5
 0.7526E-5
 0.6833E-5
 0.6517E-5
 0.6352E-5
 0.2363E-5
 0.2379E-5
 0.2637E-5
 0.2640E-5
 0.2640E-5
 0.2637E-5
 0.2379E-5
 0.2363E-5
 0.7340E-6
 0.7975E-6
 0.8145E-6
 0.9168E-6
 0.9168E-6
 0.8145E-6
 0.7975E-6
 0.7340E-6
 0.3276E-6
 0.3471E-6
 0.3313E-6
 0.3362E-6
 0.3362E-6
 0.3313E-6
 0.3471E-6
 0.3276E-6
 0.1584E-6
 0.1336E-6
 0.1579E-6
 0.1711E-6
 0.1711E-6
 0.1579E-6
 0.1336E-6
 0.1584E-6
 0.8365E-7
 0.8638E-7
 0.9149E-7
 0.8494E-7
 0.8494E-7
 0.9149E-7
 0.8638E-7
 0.8365E-7
 0.6905E-7
 0.7198E-7
 0.7472E-7
 0.8441E-7
 0.8441E-7
 0.7472E-7
 0.7198E-7
 0.6905E-7
 0.5898E-7
 0.6189E-7
 0.6389E-7
 0.6668E-7
 0.6668E-7
 0.6389E-7
 0.6189E-7
 0.5898E-7
 0.4519E-7
 0.5955E-7
 0.6332E-7
 0.5706E-7
 0.5706E-7
 0.6332E-7
 0.5955E-7
 0.4519E-7
 0.4018E-7
 0.5333E-7
 0.5469E-7
 0.4877E-7
 0.4877E-7
 0.5469E-7
 0.5333E-7
 0.4018E-7
 0.1046E-6
 0.1147E-6
 0.1325E-6
 0.1102E-6
 0.1102E-6
 0.1325E-6
 0.1147E-6
 0.1046E-6
 END_DATAGRID_2D
 END_BLOCK_DATAGRID_2D
# 
# 11/06/2019 at 14:10 YPP @ dufour [start]
# 11/06/2019 at 14:10              [end]
#
# .-Input file : Outputs/02_density_02_density.in
# | electrons                      # [R] Electrons (and holes)
# | density                        # [R] Density
# | BoseTemp= 0.000000     eV      # Bosonic Temperature
# | Format= "x"                    # Output format [(c)ube/(g)nuplot/(x)crysden]
# | Direction= "12"                # [rlu] [1/2/3] for 1d or [12/13/23] for 2d [123] for 3D
# | FFTGvecs=  7659        RL      # [FFT] Plane-waves
