#                                                           
#  ____  ____     _       ____    ____  ______      ___     
# |_  _||_  _|   / \     |_   \  /   _||_   _ \   ."   `.   
#   \ \  / /    / _ \      |   \/   |    | |_) | /  .-.  \  
#    \ \/ /    / ___ \     | |\  /| |    |  __". | |   | |  
#    _|  |_  _/ /   \ \_  _| |_\/_| |_  _| |__) |\  `-"  /  
#   |______||____| |____||_____||_____||_______/  `.___."   
#                                                           
#                                                           
#                                                           
# GPL Version 4.4.0 Revision 148. (Based on r.16920 h.961a8d
#                   MPI+SLK+OpenMP Build                    
#                http://www.yambo-code.org                  
#
#
 CRYSTAL
 PRIMVEC
  2.169626  0.000000  0.000000
   0.00000  13.22943   0.00000
   0.00000   0.00000  13.22943
 PRIMCOORD
  2  1
         1   0.55564   6.61471   6.61471
         1   1.61399   6.61471   6.61471
 BEGIN_BLOCK_DATAGRID_2D
 Generated with YPP  4   4   0
 BEGIN_DATAGRID_2D
    8   45
  0.000000  0.000000  6.614715
  2.169626  0.000000  0.000000
   0.00000  13.22943   0.00000
 0.1211E-6
 0.1320E-6
 0.1328E-6
 0.1305E-6
 0.1305E-6
 0.1328E-6
 0.1320E-6
 0.1211E-6
 0.5085E-7
 0.5512E-7
 0.5598E-7
 0.5509E-7
 0.5509E-7
 0.5598E-7
 0.5512E-7
 0.5085E-7
 0.5848E-7
 0.6738E-7
 0.6420E-7
 0.6651E-7
 0.6651E-7
 0.6420E-7
 0.6738E-7
 0.5848E-7
 0.7016E-7
 0.7532E-7
 0.7281E-7
 0.7581E-7
 0.7581E-7
 0.7281E-7
 0.7532E-7
 0.7016E-7
 0.6697E-7
 0.7986E-7
 0.7791E-7
 0.7744E-7
 0.7744E-7
 0.7791E-7
 0.7986E-7
 0.6697E-7
 0.7275E-7
 0.8328E-7
 0.7900E-7
 0.8048E-7
 0.8048E-7
 0.7900E-7
 0.8328E-7
 0.7275E-7
 0.1277E-6
 0.1339E-6
 0.1377E-6
 0.1415E-6
 0.1415E-6
 0.1377E-6
 0.1339E-6
 0.1277E-6
 0.2379E-6
 0.2584E-6
 0.2708E-6
 0.2496E-6
 0.2496E-6
 0.2708E-6
 0.2584E-6
 0.2379E-6
 0.6144E-6
 0.5839E-6
 0.5836E-6
 0.6531E-6
 0.6531E-6
 0.5836E-6
 0.5839E-6
 0.6144E-6
 0.1808E-5
 0.1854E-5
 0.1957E-5
 0.1911E-5
 0.1911E-5
 0.1957E-5
 0.1854E-5
 0.1808E-5
 0.4913E-5
 0.5060E-5
 0.5223E-5
 0.5331E-5
 0.5331E-5
 0.5223E-5
 0.5060E-5
 0.4913E-5
 0.1652E-4
 0.1664E-4
 0.1709E-4
 0.1778E-4
 0.1778E-4
 0.1709E-4
 0.1664E-4
 0.1652E-4
 0.4741E-4
 0.4787E-4
 0.4972E-4
 0.5107E-4
 0.5107E-4
 0.4972E-4
 0.4787E-4
 0.4741E-4
 0.1502E-3
 0.1545E-3
 0.1611E-3
 0.1644E-3
 0.1644E-3
 0.1611E-3
 0.1545E-3
 0.1502E-3
 0.4502E-3
 0.4558E-3
 0.4723E-3
 0.4906E-3
 0.4906E-3
 0.4723E-3
 0.4558E-3
 0.4502E-3
    0.0014
    0.0014
    0.0015
    0.0015
    0.0015
    0.0015
    0.0014
    0.0014
    0.0041
    0.0042
    0.0044
    0.0045
    0.0045
    0.0044
    0.0042
    0.0041
   0.01222
   0.01244
   0.01303
   0.01363
   0.01363
   0.01303
   0.01244
   0.01222
   0.03410
   0.03540
   0.03762
   0.03859
   0.03859
   0.03762
   0.03540
   0.03410
   0.09327
   0.09762
  0.104536
  0.107159
  0.107159
  0.104536
   0.09762
   0.09327
  0.225921
  0.249003
  0.276090
  0.267744
  0.267744
  0.276090
  0.249003
  0.225921
  0.453547
  0.568050
  0.676573
  0.573794
  0.573794
  0.676573
  0.568050
  0.453547
  0.608801
  0.812904
  1.000000
  0.797002
  0.797002
  1.000000
  0.812904
  0.608801
  0.453547
  0.568050
  0.676573
  0.573794
  0.573794
  0.676573
  0.568050
  0.453547
  0.225921
  0.249003
  0.276090
  0.267744
  0.267744
  0.276090
  0.249003
  0.225921
   0.09327
   0.09762
  0.104536
  0.107159
  0.107159
  0.104536
   0.09762
   0.09327
   0.03410
   0.03540
   0.03762
   0.03859
   0.03859
   0.03762
   0.03540
   0.03410
   0.01222
   0.01244
   0.01303
   0.01363
   0.01363
   0.01303
   0.01244
   0.01222
    0.0041
    0.0042
    0.0044
    0.0045
    0.0045
    0.0044
    0.0042
    0.0041
    0.0014
    0.0014
    0.0015
    0.0015
    0.0015
    0.0015
    0.0014
    0.0014
 0.4502E-3
 0.4558E-3
 0.4723E-3
 0.4906E-3
 0.4906E-3
 0.4723E-3
 0.4558E-3
 0.4502E-3
 0.1502E-3
 0.1545E-3
 0.1611E-3
 0.1644E-3
 0.1644E-3
 0.1611E-3
 0.1545E-3
 0.1502E-3
 0.4741E-4
 0.4787E-4
 0.4972E-4
 0.5107E-4
 0.5107E-4
 0.4972E-4
 0.4787E-4
 0.4741E-4
 0.1652E-4
 0.1664E-4
 0.1709E-4
 0.1778E-4
 0.1778E-4
 0.1709E-4
 0.1664E-4
 0.1652E-4
 0.4913E-5
 0.5060E-5
 0.5223E-5
 0.5331E-5
 0.5331E-5
 0.5223E-5
 0.5060E-5
 0.4913E-5
 0.1808E-5
 0.1854E-5
 0.1957E-5
 0.1911E-5
 0.1911E-5
 0.1957E-5
 0.1854E-5
 0.1808E-5
 0.6144E-6
 0.5839E-6
 0.5836E-6
 0.6531E-6
 0.6531E-6
 0.5836E-6
 0.5839E-6
 0.6144E-6
 0.2379E-6
 0.2584E-6
 0.2708E-6
 0.2496E-6
 0.2496E-6
 0.2708E-6
 0.2584E-6
 0.2379E-6
 0.1277E-6
 0.1339E-6
 0.1377E-6
 0.1415E-6
 0.1415E-6
 0.1377E-6
 0.1339E-6
 0.1277E-6
 0.7275E-7
 0.8328E-7
 0.7900E-7
 0.8048E-7
 0.8048E-7
 0.7900E-7
 0.8328E-7
 0.7275E-7
 0.6697E-7
 0.7986E-7
 0.7791E-7
 0.7744E-7
 0.7744E-7
 0.7791E-7
 0.7986E-7
 0.6697E-7
 0.7016E-7
 0.7532E-7
 0.7281E-7
 0.7581E-7
 0.7581E-7
 0.7281E-7
 0.7532E-7
 0.7016E-7
 0.5848E-7
 0.6738E-7
 0.6420E-7
 0.6651E-7
 0.6651E-7
 0.6420E-7
 0.6738E-7
 0.5848E-7
 0.5085E-7
 0.5512E-7
 0.5598E-7
 0.5509E-7
 0.5509E-7
 0.5598E-7
 0.5512E-7
 0.5085E-7
 0.1211E-6
 0.1320E-6
 0.1328E-6
 0.1305E-6
 0.1305E-6
 0.1328E-6
 0.1320E-6
 0.1211E-6
 END_DATAGRID_2D
 END_BLOCK_DATAGRID_2D
# 
# 11/06/2019 at 14:04 YPP @ dufour [start]
# 11/06/2019 at 14:04              [end]
#
# .-Input file : Outputs/02_density_02_density.in
# | electrons                      # [R] Electrons (and holes)
# | density                        # [R] Density
# | BoseTemp= 0.000000     eV      # Bosonic Temperature
# | Format= "x"                    # Output format [(c)ube/(g)nuplot/(x)crysden]
# | Direction= "12"                # [rlu] [1/2/3] for 1d or [12/13/23] for 2d [123] for 3D
# | FFTGvecs=  7659        RL      # [FFT] Plane-waves
