#                                                           
#  __  __   ________   ___ __ __    _______   ______        
# /_/\/_/\ /_______/\ /__//_//_/\ /_______/\ /_____/\       
# \ \ \ \ \\::: _  \ \\::\| \| \ \\::: _  \ \\:::_ \ \      
#  \:\_\ \ \\::(_)  \ \\:.      \ \\::(_)  \/_\:\ \ \ \     
#   \::::_\/ \:: __  \ \\:.\-/\  \ \\::  _  \ \\:\ \ \ \    
#     \::\ \  \:.\ \  \ \\. \  \  \ \\::(_)  \ \\:\_\ \ \   
#      \__\/   \__\/\__\/ \__\/ \__\/ \_______\/ \_____\/   
#                                                           
#                                                           
# GPL Version 4.4.0 Revision 148. (Based on r.16920 h.961a8d
#                  MPI+SLK+OpenMP Build                     
#                http://www.yambo-code.org                  
#
#
 CRYSTAL
 PRIMVEC
  2.328380  0.000000  0.000000
   0.00000  13.22943   0.00000
   0.00000   0.00000  13.22943
 PRIMCOORD
  2  1
         1   0.63501   6.61471   6.61471
         1   1.69337   6.61471   6.61471
 BEGIN_BLOCK_DATAGRID_2D
 Generated with YPP  4   4   0
 BEGIN_DATAGRID_2D
    8   45
  0.000000  0.000000  6.614715
  2.328380  0.000000  0.000000
   0.00000  13.22943   0.00000
 0.1055E-6
 0.1175E-6
 0.1225E-6
 0.1210E-6
 0.1210E-6
 0.1225E-6
 0.1175E-6
 0.1055E-6
 0.4736E-7
 0.5142E-7
 0.5383E-7
 0.5067E-7
 0.5067E-7
 0.5383E-7
 0.5142E-7
 0.4736E-7
 0.4472E-7
 0.5656E-7
 0.6696E-7
 0.5613E-7
 0.5613E-7
 0.6696E-7
 0.5656E-7
 0.4472E-7
 0.6442E-7
 0.6288E-7
 0.6877E-7
 0.6328E-7
 0.6328E-7
 0.6877E-7
 0.6288E-7
 0.6442E-7
 0.7101E-7
 0.7383E-7
 0.7257E-7
 0.8371E-7
 0.8371E-7
 0.7257E-7
 0.7383E-7
 0.7101E-7
 0.7817E-7
 0.8151E-7
 0.8676E-7
 0.8407E-7
 0.8407E-7
 0.8676E-7
 0.8151E-7
 0.7817E-7
 0.1435E-6
 0.1270E-6
 0.1484E-6
 0.1665E-6
 0.1665E-6
 0.1484E-6
 0.1270E-6
 0.1435E-6
 0.2993E-6
 0.3252E-6
 0.3107E-6
 0.3188E-6
 0.3188E-6
 0.3107E-6
 0.3252E-6
 0.2993E-6
 0.6983E-6
 0.7454E-6
 0.7624E-6
 0.8392E-6
 0.8392E-6
 0.7624E-6
 0.7454E-6
 0.6983E-6
 0.2263E-5
 0.2234E-5
 0.2422E-5
 0.2484E-5
 0.2484E-5
 0.2422E-5
 0.2234E-5
 0.2263E-5
 0.5972E-5
 0.6131E-5
 0.6507E-5
 0.6939E-5
 0.6939E-5
 0.6507E-5
 0.6131E-5
 0.5972E-5
 0.1852E-4
 0.1955E-4
 0.2114E-4
 0.2208E-4
 0.2208E-4
 0.2114E-4
 0.1955E-4
 0.1852E-4
 0.5409E-4
 0.5499E-4
 0.5941E-4
 0.6362E-4
 0.6362E-4
 0.5941E-4
 0.5499E-4
 0.5409E-4
 0.1623E-3
 0.1714E-3
 0.1871E-3
 0.1997E-3
 0.1997E-3
 0.1871E-3
 0.1714E-3
 0.1623E-3
 0.4705E-3
 0.4950E-3
 0.5438E-3
 0.5815E-3
 0.5815E-3
 0.5438E-3
 0.4950E-3
 0.4705E-3
    0.0014
    0.0015
    0.0016
    0.0018
    0.0018
    0.0016
    0.0015
    0.0014
    0.0040
    0.0042
    0.0048
    0.0052
    0.0052
    0.0048
    0.0042
    0.0040
   0.01141
   0.01215
   0.01390
   0.01536
   0.01536
   0.01390
   0.01215
   0.01141
   0.03054
   0.03342
   0.03916
   0.04294
   0.04294
   0.03916
   0.03342
   0.03054
   0.07868
   0.08870
  0.106916
  0.117557
  0.117557
  0.106916
   0.08870
   0.07868
  0.180257
  0.216081
  0.278380
  0.291278
  0.291278
  0.278380
  0.216081
  0.180257
  0.333984
  0.468692
  0.677538
  0.622716
  0.622716
  0.677538
  0.468692
  0.333984
  0.428537
  0.656395
  1.000000
  0.864650
  0.864650
  1.000000
  0.656395
  0.428537
  0.333984
  0.468692
  0.677538
  0.622716
  0.622716
  0.677538
  0.468692
  0.333984
  0.180257
  0.216081
  0.278380
  0.291278
  0.291278
  0.278380
  0.216081
  0.180257
   0.07868
   0.08870
  0.106916
  0.117557
  0.117557
  0.106916
   0.08870
   0.07868
   0.03054
   0.03342
   0.03916
   0.04294
   0.04294
   0.03916
   0.03342
   0.03054
   0.01141
   0.01215
   0.01390
   0.01536
   0.01536
   0.01390
   0.01215
   0.01141
    0.0040
    0.0042
    0.0048
    0.0052
    0.0052
    0.0048
    0.0042
    0.0040
    0.0014
    0.0015
    0.0016
    0.0018
    0.0018
    0.0016
    0.0015
    0.0014
 0.4705E-3
 0.4950E-3
 0.5438E-3
 0.5815E-3
 0.5815E-3
 0.5438E-3
 0.4950E-3
 0.4705E-3
 0.1623E-3
 0.1714E-3
 0.1871E-3
 0.1997E-3
 0.1997E-3
 0.1871E-3
 0.1714E-3
 0.1623E-3
 0.5409E-4
 0.5499E-4
 0.5941E-4
 0.6362E-4
 0.6362E-4
 0.5941E-4
 0.5499E-4
 0.5409E-4
 0.1852E-4
 0.1955E-4
 0.2114E-4
 0.2208E-4
 0.2208E-4
 0.2114E-4
 0.1955E-4
 0.1852E-4
 0.5972E-5
 0.6131E-5
 0.6507E-5
 0.6939E-5
 0.6939E-5
 0.6507E-5
 0.6131E-5
 0.5972E-5
 0.2263E-5
 0.2234E-5
 0.2422E-5
 0.2484E-5
 0.2484E-5
 0.2422E-5
 0.2234E-5
 0.2263E-5
 0.6983E-6
 0.7454E-6
 0.7624E-6
 0.8392E-6
 0.8392E-6
 0.7624E-6
 0.7454E-6
 0.6983E-6
 0.2993E-6
 0.3252E-6
 0.3107E-6
 0.3188E-6
 0.3188E-6
 0.3107E-6
 0.3252E-6
 0.2993E-6
 0.1435E-6
 0.1270E-6
 0.1484E-6
 0.1665E-6
 0.1665E-6
 0.1484E-6
 0.1270E-6
 0.1435E-6
 0.7817E-7
 0.8151E-7
 0.8676E-7
 0.8407E-7
 0.8407E-7
 0.8676E-7
 0.8151E-7
 0.7817E-7
 0.7101E-7
 0.7383E-7
 0.7257E-7
 0.8371E-7
 0.8371E-7
 0.7257E-7
 0.7383E-7
 0.7101E-7
 0.6442E-7
 0.6288E-7
 0.6877E-7
 0.6328E-7
 0.6328E-7
 0.6877E-7
 0.6288E-7
 0.6442E-7
 0.4472E-7
 0.5656E-7
 0.6696E-7
 0.5613E-7
 0.5613E-7
 0.6696E-7
 0.5656E-7
 0.4472E-7
 0.4736E-7
 0.5142E-7
 0.5383E-7
 0.5067E-7
 0.5067E-7
 0.5383E-7
 0.5142E-7
 0.4736E-7
 0.1055E-6
 0.1175E-6
 0.1225E-6
 0.1210E-6
 0.1210E-6
 0.1225E-6
 0.1175E-6
 0.1055E-6
 END_DATAGRID_2D
 END_BLOCK_DATAGRID_2D
# 
# 11/06/2019 at 14:19 YPP @ dufour [start]
# 11/06/2019 at 14:19              [end]
#
# .-Input file : Outputs/02_density_02_density.in
# | electrons                      # [R] Electrons (and holes)
# | density                        # [R] Density
# | BoseTemp= 0.000000     eV      # Bosonic Temperature
# | Format= "x"                    # Output format [(c)ube/(g)nuplot/(x)crysden]
# | Direction= "12"                # [rlu] [1/2/3] for 1d or [12/13/23] for 2d [123] for 3D
# | FFTGvecs=  7667        RL      # [FFT] Plane-waves
