#                                                           
#  **    **    **     ****     ****  ******     *******     
# //**  **    ****   /**/**   **/** /*////**   **/////**    
#  //****    **//**  /**//** ** /** /*   /**  **     //**   
#   //**    **  //** /** //***  /** /******  /**      /**   
#    /**   **********/**  //*   /** /*//// **/**      /**   
#    /**  /**//////**/**   /    /** /*    /**//**     **    
#    /**  /**     /**/**        /** /*******  //*******     
#    //   //      // //         //  ///////    ///////      
#                                                           
# GPL Version 4.4.0 Revision 148. (Based on r.16920 h.961a8d
#                  MPI+SLK+OpenMP Build                     
#                http://www.yambo-code.org                  
#
#
 CRYSTAL
 PRIMVEC
  2.222544  0.000000  0.000000
   0.00000  13.22943   0.00000
   0.00000   0.00000  13.22943
 PRIMCOORD
  2  1
         1   0.58209   6.61471   6.61471
         1   1.64045   6.61471   6.61471
 BEGIN_BLOCK_DATAGRID_2D
 Generated with YPP  4   4   0
 BEGIN_DATAGRID_2D
    8   45
  0.000000  0.000000  6.614715
  2.222544  0.000000  0.000000
   0.00000  13.22943   0.00000
 0.1216E-6
 0.1236E-6
 0.1204E-6
 0.1293E-6
 0.1293E-6
 0.1204E-6
 0.1236E-6
 0.1216E-6
 0.5035E-7
 0.5336E-7
 0.5392E-7
 0.5463E-7
 0.5463E-7
 0.5392E-7
 0.5336E-7
 0.5035E-7
 0.5847E-7
 0.5802E-7
 0.6185E-7
 0.6297E-7
 0.6297E-7
 0.6185E-7
 0.5802E-7
 0.5847E-7
 0.7141E-7
 0.6766E-7
 0.6963E-7
 0.7176E-7
 0.7176E-7
 0.6963E-7
 0.6766E-7
 0.7141E-7
 0.6764E-7
 0.7565E-7
 0.7927E-7
 0.7736E-7
 0.7736E-7
 0.7927E-7
 0.7565E-7
 0.6764E-7
 0.7620E-7
 0.7817E-7
 0.7857E-7
 0.8135E-7
 0.8135E-7
 0.7857E-7
 0.7817E-7
 0.7620E-7
 0.1459E-6
 0.1230E-6
 0.1286E-6
 0.1566E-6
 0.1566E-6
 0.1286E-6
 0.1230E-6
 0.1459E-6
 0.2494E-6
 0.2783E-6
 0.2999E-6
 0.2627E-6
 0.2627E-6
 0.2999E-6
 0.2783E-6
 0.2494E-6
 0.6435E-6
 0.6289E-6
 0.6388E-6
 0.7133E-6
 0.7133E-6
 0.6388E-6
 0.6289E-6
 0.6435E-6
 0.1985E-5
 0.1972E-5
 0.2071E-5
 0.2127E-5
 0.2127E-5
 0.2071E-5
 0.1972E-5
 0.1985E-5
 0.5168E-5
 0.5423E-5
 0.5715E-5
 0.5831E-5
 0.5831E-5
 0.5715E-5
 0.5423E-5
 0.5168E-5
 0.1718E-4
 0.1758E-4
 0.1843E-4
 0.1927E-4
 0.1927E-4
 0.1843E-4
 0.1758E-4
 0.1718E-4
 0.4974E-4
 0.5015E-4
 0.5290E-4
 0.5555E-4
 0.5555E-4
 0.5290E-4
 0.5015E-4
 0.4974E-4
 0.1536E-3
 0.1601E-3
 0.1706E-3
 0.1766E-3
 0.1766E-3
 0.1706E-3
 0.1601E-3
 0.1536E-3
 0.4566E-3
 0.4688E-3
 0.4971E-3
 0.5233E-3
 0.5233E-3
 0.4971E-3
 0.4688E-3
 0.4566E-3
    0.0014
    0.0014
    0.0015
    0.0016
    0.0016
    0.0015
    0.0014
    0.0014
    0.0040
    0.0042
    0.0045
    0.0048
    0.0048
    0.0045
    0.0042
    0.0040
   0.01191
   0.01232
   0.01335
   0.01428
   0.01428
   0.01335
   0.01232
   0.01191
   0.03277
   0.03466
   0.03820
   0.04023
   0.04023
   0.03820
   0.03466
   0.03277
   0.08783
   0.09427
  0.105477
  0.111080
  0.111080
  0.105477
   0.09427
   0.08783
  0.208674
  0.236713
  0.277006
  0.276639
  0.276639
  0.277006
  0.236713
  0.208674
  0.406933
  0.530975
  0.676956
  0.592068
  0.592068
  0.676956
  0.530975
  0.406933
  0.537499
  0.754377
  1.000000
  0.822099
  0.822099
  1.000000
  0.754377
  0.537499
  0.406933
  0.530975
  0.676956
  0.592068
  0.592068
  0.676956
  0.530975
  0.406933
  0.208674
  0.236713
  0.277006
  0.276639
  0.276639
  0.277006
  0.236713
  0.208674
   0.08783
   0.09427
  0.105477
  0.111080
  0.111080
  0.105477
   0.09427
   0.08783
   0.03277
   0.03466
   0.03820
   0.04023
   0.04023
   0.03820
   0.03466
   0.03277
   0.01191
   0.01232
   0.01335
   0.01428
   0.01428
   0.01335
   0.01232
   0.01191
    0.0040
    0.0042
    0.0045
    0.0048
    0.0048
    0.0045
    0.0042
    0.0040
    0.0014
    0.0014
    0.0015
    0.0016
    0.0016
    0.0015
    0.0014
    0.0014
 0.4566E-3
 0.4688E-3
 0.4971E-3
 0.5233E-3
 0.5233E-3
 0.4971E-3
 0.4688E-3
 0.4566E-3
 0.1536E-3
 0.1601E-3
 0.1706E-3
 0.1766E-3
 0.1766E-3
 0.1706E-3
 0.1601E-3
 0.1536E-3
 0.4974E-4
 0.5015E-4
 0.5290E-4
 0.5555E-4
 0.5555E-4
 0.5290E-4
 0.5015E-4
 0.4974E-4
 0.1718E-4
 0.1758E-4
 0.1843E-4
 0.1927E-4
 0.1927E-4
 0.1843E-4
 0.1758E-4
 0.1718E-4
 0.5168E-5
 0.5423E-5
 0.5715E-5
 0.5831E-5
 0.5831E-5
 0.5715E-5
 0.5423E-5
 0.5168E-5
 0.1985E-5
 0.1972E-5
 0.2071E-5
 0.2127E-5
 0.2127E-5
 0.2071E-5
 0.1972E-5
 0.1985E-5
 0.6435E-6
 0.6289E-6
 0.6388E-6
 0.7133E-6
 0.7133E-6
 0.6388E-6
 0.6289E-6
 0.6435E-6
 0.2494E-6
 0.2783E-6
 0.2999E-6
 0.2627E-6
 0.2627E-6
 0.2999E-6
 0.2783E-6
 0.2494E-6
 0.1459E-6
 0.1230E-6
 0.1286E-6
 0.1566E-6
 0.1566E-6
 0.1286E-6
 0.1230E-6
 0.1459E-6
 0.7620E-7
 0.7817E-7
 0.7857E-7
 0.8135E-7
 0.8135E-7
 0.7857E-7
 0.7817E-7
 0.7620E-7
 0.6764E-7
 0.7565E-7
 0.7927E-7
 0.7736E-7
 0.7736E-7
 0.7927E-7
 0.7565E-7
 0.6764E-7
 0.7141E-7
 0.6766E-7
 0.6963E-7
 0.7176E-7
 0.7176E-7
 0.6963E-7
 0.6766E-7
 0.7141E-7
 0.5847E-7
 0.5802E-7
 0.6185E-7
 0.6297E-7
 0.6297E-7
 0.6185E-7
 0.5802E-7
 0.5847E-7
 0.5035E-7
 0.5336E-7
 0.5392E-7
 0.5463E-7
 0.5463E-7
 0.5392E-7
 0.5336E-7
 0.5035E-7
 0.1216E-6
 0.1236E-6
 0.1204E-6
 0.1293E-6
 0.1293E-6
 0.1204E-6
 0.1236E-6
 0.1216E-6
 END_DATAGRID_2D
 END_BLOCK_DATAGRID_2D
# 
# 11/06/2019 at 14:07 YPP @ dufour [start]
# 11/06/2019 at 14:07              [end]
#
# .-Input file : Outputs/02_density_02_density.in
# | electrons                      # [R] Electrons (and holes)
# | density                        # [R] Density
# | BoseTemp= 0.000000     eV      # Bosonic Temperature
# | Format= "x"                    # Output format [(c)ube/(g)nuplot/(x)crysden]
# | Direction= "12"                # [rlu] [1/2/3] for 1d or [12/13/23] for 2d [123] for 3D
# | FFTGvecs=  7667        RL      # [FFT] Plane-waves
