#                                                           
#  __  __   ________   ___ __ __    _______   ______        
# /_/\/_/\ /_______/\ /__//_//_/\ /_______/\ /_____/\       
# \ \ \ \ \\::: _  \ \\::\| \| \ \\::: _  \ \\:::_ \ \      
#  \:\_\ \ \\::(_)  \ \\:.      \ \\::(_)  \/_\:\ \ \ \     
#   \::::_\/ \:: __  \ \\:.\-/\  \ \\::  _  \ \\:\ \ \ \    
#     \::\ \  \:.\ \  \ \\. \  \  \ \\::(_)  \ \\:\_\ \ \   
#      \__\/   \__\/\__\/ \__\/ \__\/ \_______\/ \_____\/   
#                                                           
#                                                           
# GPL Version 4.4.0 Revision 148. (Based on r.16920 h.961a8d
#                  MPI+SLK+OpenMP Build                     
#                http://www.yambo-code.org                  
#
#
 CRYSTAL
 PRIMVEC
  2.143168  0.000000  0.000000
   0.00000  13.22943   0.00000
   0.00000   0.00000  13.22943
 PRIMCOORD
  2  1
         1   0.54241   6.61471   6.61471
         1   1.60076   6.61471   6.61471
 BEGIN_BLOCK_DATAGRID_2D
 Generated with YPP  4   4   0
 BEGIN_DATAGRID_2D
    8   45
  0.000000  0.000000  6.614715
  2.143168  0.000000  0.000000
   0.00000  13.22943   0.00000
 0.1293E-6
 0.1335E-6
 0.1380E-6
 0.1329E-6
 0.1329E-6
 0.1380E-6
 0.1335E-6
 0.1293E-6
 0.5366E-7
 0.5563E-7
 0.5703E-7
 0.5616E-7
 0.5616E-7
 0.5703E-7
 0.5563E-7
 0.5366E-7
 0.6386E-7
 0.6918E-7
 0.6699E-7
 0.6888E-7
 0.6888E-7
 0.6699E-7
 0.6918E-7
 0.6386E-7
 0.7431E-7
 0.7729E-7
 0.7422E-7
 0.7844E-7
 0.7844E-7
 0.7422E-7
 0.7729E-7
 0.7431E-7
 0.7095E-7
 0.7968E-7
 0.7826E-7
 0.7784E-7
 0.7784E-7
 0.7826E-7
 0.7968E-7
 0.7095E-7
 0.7314E-7
 0.8539E-7
 0.7887E-7
 0.8149E-7
 0.8149E-7
 0.7887E-7
 0.8539E-7
 0.7314E-7
 0.1234E-6
 0.1381E-6
 0.1379E-6
 0.1374E-6
 0.1374E-6
 0.1379E-6
 0.1381E-6
 0.1234E-6
 0.2336E-6
 0.2517E-6
 0.2565E-6
 0.2450E-6
 0.2450E-6
 0.2565E-6
 0.2517E-6
 0.2336E-6
 0.6031E-6
 0.5640E-6
 0.5534E-6
 0.6219E-6
 0.6219E-6
 0.5534E-6
 0.5640E-6
 0.6031E-6
 0.1728E-5
 0.1799E-5
 0.1895E-5
 0.1809E-5
 0.1809E-5
 0.1895E-5
 0.1799E-5
 0.1728E-5
 0.4790E-5
 0.4885E-5
 0.4986E-5
 0.5062E-5
 0.5062E-5
 0.4986E-5
 0.4885E-5
 0.4790E-5
 0.1623E-4
 0.1618E-4
 0.1641E-4
 0.1701E-4
 0.1701E-4
 0.1641E-4
 0.1618E-4
 0.1623E-4
 0.4633E-4
 0.4679E-4
 0.4808E-4
 0.4875E-4
 0.4875E-4
 0.4808E-4
 0.4679E-4
 0.4633E-4
 0.1488E-3
 0.1519E-3
 0.1563E-3
 0.1580E-3
 0.1580E-3
 0.1563E-3
 0.1519E-3
 0.1488E-3
 0.4479E-3
 0.4498E-3
 0.4593E-3
 0.4730E-3
 0.4730E-3
 0.4593E-3
 0.4498E-3
 0.4479E-3
    0.0014
    0.0014
    0.0014
    0.0015
    0.0015
    0.0014
    0.0014
    0.0014
    0.0041
    0.0042
    0.0043
    0.0044
    0.0044
    0.0043
    0.0042
    0.0041
   0.01241
   0.01251
   0.01286
   0.01327
   0.01327
   0.01286
   0.01251
   0.01241
   0.03487
   0.03584
   0.03729
   0.03767
   0.03767
   0.03729
   0.03584
   0.03487
   0.09636
   0.09953
  0.103994
  0.104901
  0.104901
  0.103994
   0.09953
   0.09636
  0.235775
  0.255920
  0.275553
  0.262589
  0.262589
  0.275553
  0.255920
  0.235775
  0.480659
  0.588834
  0.676333
  0.563257
  0.563257
  0.676333
  0.588834
  0.480659
  0.650643
  0.845764
  1.000000
  0.782587
  0.782587
  1.000000
  0.845764
  0.650643
  0.480659
  0.588834
  0.676333
  0.563257
  0.563257
  0.676333
  0.588834
  0.480659
  0.235775
  0.255920
  0.275553
  0.262589
  0.262589
  0.275553
  0.255920
  0.235775
   0.09636
   0.09953
  0.103994
  0.104901
  0.104901
  0.103994
   0.09953
   0.09636
   0.03487
   0.03584
   0.03729
   0.03767
   0.03767
   0.03729
   0.03584
   0.03487
   0.01241
   0.01251
   0.01286
   0.01327
   0.01327
   0.01286
   0.01251
   0.01241
    0.0041
    0.0042
    0.0043
    0.0044
    0.0044
    0.0043
    0.0042
    0.0041
    0.0014
    0.0014
    0.0014
    0.0015
    0.0015
    0.0014
    0.0014
    0.0014
 0.4479E-3
 0.4498E-3
 0.4593E-3
 0.4730E-3
 0.4730E-3
 0.4593E-3
 0.4498E-3
 0.4479E-3
 0.1488E-3
 0.1519E-3
 0.1563E-3
 0.1580E-3
 0.1580E-3
 0.1563E-3
 0.1519E-3
 0.1488E-3
 0.4633E-4
 0.4679E-4
 0.4808E-4
 0.4875E-4
 0.4875E-4
 0.4808E-4
 0.4679E-4
 0.4633E-4
 0.1623E-4
 0.1618E-4
 0.1641E-4
 0.1701E-4
 0.1701E-4
 0.1641E-4
 0.1618E-4
 0.1623E-4
 0.4790E-5
 0.4885E-5
 0.4986E-5
 0.5062E-5
 0.5062E-5
 0.4986E-5
 0.4885E-5
 0.4790E-5
 0.1728E-5
 0.1799E-5
 0.1895E-5
 0.1809E-5
 0.1809E-5
 0.1895E-5
 0.1799E-5
 0.1728E-5
 0.6031E-6
 0.5640E-6
 0.5534E-6
 0.6219E-6
 0.6219E-6
 0.5534E-6
 0.5640E-6
 0.6031E-6
 0.2336E-6
 0.2517E-6
 0.2565E-6
 0.2450E-6
 0.2450E-6
 0.2565E-6
 0.2517E-6
 0.2336E-6
 0.1234E-6
 0.1381E-6
 0.1379E-6
 0.1374E-6
 0.1374E-6
 0.1379E-6
 0.1381E-6
 0.1234E-6
 0.7314E-7
 0.8539E-7
 0.7887E-7
 0.8149E-7
 0.8149E-7
 0.7887E-7
 0.8539E-7
 0.7314E-7
 0.7095E-7
 0.7968E-7
 0.7826E-7
 0.7784E-7
 0.7784E-7
 0.7826E-7
 0.7968E-7
 0.7095E-7
 0.7431E-7
 0.7729E-7
 0.7422E-7
 0.7844E-7
 0.7844E-7
 0.7422E-7
 0.7729E-7
 0.7431E-7
 0.6386E-7
 0.6918E-7
 0.6699E-7
 0.6888E-7
 0.6888E-7
 0.6699E-7
 0.6918E-7
 0.6386E-7
 0.5366E-7
 0.5563E-7
 0.5703E-7
 0.5616E-7
 0.5616E-7
 0.5703E-7
 0.5563E-7
 0.5366E-7
 0.1293E-6
 0.1335E-6
 0.1380E-6
 0.1329E-6
 0.1329E-6
 0.1380E-6
 0.1335E-6
 0.1293E-6
 END_DATAGRID_2D
 END_BLOCK_DATAGRID_2D
# 
# 11/06/2019 at 12:03 YPP @ dufour [start]
# 11/06/2019 at 12:03              [end]
#
# .-Input file : References//02_density_02_density.in
# | electrons                      # [R] Electrons (and holes)
# | density                        # [R] Density
# | BoseTemp= 0.000000     eV      # Bosonic Temperature
# | Format= "x"                    # Output format [(c)ube/(g)nuplot/(x)crysden]
# | Direction= "12"                # [rlu] [1/2/3] for 1d or [12/13/23] for 2d [123] for 3D
# | FFTGvecs=  7659        RL      # [FFT] Plane-waves
